FoamFile
{
    version     2.0;
    format      ascii;
    class       volScalarField;
    location    0;
    object      nut;
}
dimensions [0 2 -1 0 0 0 0];
internalField uniform 0.001;
boundaryField
{
    #includeEtc "caseDicts/setConstraintTypes"
    inlet
    {
        type calculated;
        value uniform 0.001;
    }
    wall
    {
        type nutkWallFunction;
        value uniform 0.0;
    }
    outlet
    {
        type calculated;
        value uniform 0.001;
    }
    bottom
    {
        type nutkWallFunction;
        value uniform 0.0;
    }
    rot
    {
        type nutkWallFunction;
        value uniform 0.0;
    }
    buffle0
    {
        type zeroGradient;
    }
    defaultFaces
    {
        type zeroGradient;
    }
}
