/*--------------------------------*- C++ -*----------------------------------*\
| =========                 |                                                |
| \\      /  F ield         | cfMesh: A library for mesh generation          | 
|  \\    /   O peration     |                                                |
|   \\  /    A nd           | Author: Franjo Juretic                         | 
|    \\/     M anipulation  | E-mail: franjo.juretic@c-fields.com            |
\*---------------------------------------------------------------------------*/

FoamFile
{
    version   2.0;
    format    ascii;
    class     dictionary;
    location  "system";
    object    meshDict;
}

// * * * * * * * * * * * * * * * * * * * * * * * * * * * * * * * * * * * * * //

surfaceFile "cadinner.fms";

maxCellSize 0.2;

boundaryCellSize 0.1;

/* keepCellsIntersectingPatches
{
    "mrf_*"
    {
        keepCells 1;
    }
}  */

keepCellsIntersectingBoundary 1;

localRefinement
{
    rot
    {
        cellSize 0.01;
    }
    mrf_inner
    {
        cellSize 0.01;
    }
}

// ************************************************************************* //
