/*--------------------------------*- C++ -*----------------------------------*\
  =========                 |
  \\      /  F ield         | OpenFOAM: The Open Source CFD Toolbox
   \\    /   O peration     | Website:  https://openfoam.org
    \\  /    A nd           | Version:  11
     \\/     M anipulation  |
\*---------------------------------------------------------------------------*/
FoamFile
{
    format      ascii;
    class       featureEdgeMesh;
    location    "constant/triSurface";
    object      cadall.eMesh;
}
// * * * * * * * * * * * * * * * * * * * * * * * * * * * * * * * * * * * * * //


// points:

666
(
(-0.004 1.46958e-18 0)
(-0.0229635 -0.00104635 0)
(-0.0229635 0.00104635 0)
(-0.0226722 -0.00311868 0)
(-0.0226722 0.00311868 0)
(-0.0220954 -0.0051303 0)
(-0.0212442 -0.00704207 0)
(-0.0201353 -0.00881678 0)
(-0.0187901 -0.0104199 0)
(-0.0172349 -0.0118202 0)
(-0.0155 -0.0129904 0)
(-0.0136191 -0.0139078 0)
(-0.0116288 -0.0145544 0)
(-0.00956793 -0.0149178 0)
(-0.00747651 -0.0149909 0)
(-0.00539528 -0.0147721 0)
(-0.00336475 -0.0142658 0)
(-0.00142443 -0.0134819 0)
(0.000387894 -0.0124356 0)
(0.00203696 -0.0111472 0)
(0.00349067 -0.00964181 0)
(0.00472072 -0.00794879 0)
(0.00570318 -0.00610105 0)
(0.00641893 -0.00413456 0)
(0.00685402 -0.0020876 0)
(0.007 0 0)
(0.00685402 0.0020876 0)
(0.00641893 0.00413456 0)
(0.00570318 0.00610105 0)
(0.00472072 0.00794879 0)
(0.00349067 0.00964181 0)
(0.00203696 0.0111472 0)
(0.000387894 0.0124356 0)
(-0.00142443 0.0134819 0)
(-0.00336475 0.0142658 0)
(-0.00539528 0.0147721 0)
(-0.00747651 0.0149909 0)
(-0.00956793 0.0149178 0)
(-0.0116288 0.0145544 0)
(-0.0136191 0.0139078 0)
(-0.0155 0.0129904 0)
(-0.0172349 0.0118202 0)
(-0.0187901 0.0104199 0)
(-0.0201353 0.00881678 0)
(-0.0212442 0.00704207 0)
(-0.0220954 0.0051303 0)
(0.0435644 0.000826912 0.00888379)
(0.0435644 0.000417519 0.0089708)
(0.0435644 -7.34788e-19 0.009)
(0.0435644 -0.000417519 0.0089708)
(0.0435644 0.00192836 0.00829813)
(0.0435644 0.00158976 0.00854414)
(0.0435644 0.00122021 0.00874064)
(0.0435644 0.00269638 0.00731511)
(0.0435644 0.00248711 0.00767758)
(0.0435644 0.00222943 0.00800739)
(0.0435644 0.00299817 0.0061047)
(0.0435644 0.00295442 0.00652094)
(0.0435644 0.00285317 0.00692705)
(0.0435644 0.00278155 0.00487618)
(0.0435644 0.00291089 0.00527423)
(0.0435644 0.00298357 0.00568641)
(0.0435644 0.00208398 0.00384198)
(0.0435644 0.00236403 0.00415302)
(0.0435644 0.00259808 0.0045)
(0.0435644 0.00102606 0.00318092)
(0.0435644 0.00140841 0.00335116)
(0.0435644 0.00176336 0.00357295)
(0.0435644 -0.000209269 0.00300731)
(0.0435644 0.000209269 0.00300731)
(0.0435644 0.000623735 0.00306556)
(0.0435644 -0.00140841 0.00335116)
(0.0435644 -0.00102606 0.00318092)
(0.0435644 -0.000623735 0.00306556)
(0.0435644 -0.00236403 0.00415302)
(0.0435644 -0.00208398 0.00384198)
(0.0435644 -0.00176336 0.00357295)
(0.0435644 -0.00291089 0.00527423)
(0.0435644 -0.00278155 0.00487618)
(0.0435644 -0.00259808 0.0045)
(0.0435644 -0.00295442 0.00652094)
(0.0435644 -0.00299817 0.0061047)
(0.0435644 -0.00298357 0.00568641)
(0.0435644 -0.00248711 0.00767758)
(0.0435644 -0.00269638 0.00731511)
(0.0435644 -0.00285317 0.00692705)
(0.0435644 -0.00158976 0.00854414)
(0.0435644 -0.00192836 0.00829813)
(0.0435644 -0.00222943 0.00800739)
(0.0435644 -0.000826912 0.00888379)
(0.0435644 -0.00122021 0.00874064)
(-0.00384505 -0.00110255 0)
(-0.00396107 -0.000556692 0)
(-0.00396107 0.000556692 0)
(-0.00306418 -0.00257115 0)
(-0.00339219 -0.00211968 0)
(-0.00365418 -0.00162695 0)
(-0.00175348 -0.00359518 0)
(-0.00223677 -0.00331615 0)
(-0.00267652 -0.00297258 0)
(-0.000139598 -0.00399756 0)
(-0.000694593 -0.00393923 0)
(-0.00123607 -0.00380423 0)
(0.00149843 -0.00370874 0)
(0.000967688 -0.00388118 0)
(0.000418114 -0.00397809 0)
(0.00287736 -0.00277863 0)
(0.00246265 -0.00315204 0)
(0.002 -0.0034641 0)
(0.00375877 -0.00136808 0)
(0.00353179 -0.00187789 0)
(0.00323607 -0.00235114 0)
(0.00399026 0.000279026 0)
(0.00399026 -0.000279026 0)
(0.00391259 -0.000831647 0)
(0.00353179 0.00187789 0)
(0.00375877 0.00136808 0)
(0.00391259 0.000831647 0)
(0.00246265 0.00315204 0)
(0.00287736 0.00277863 0)
(0.00323607 0.00235114 0)
(0.000967688 0.00388118 0)
(0.00149843 0.00370874 0)
(0.002 0.0034641 0)
(-0.000694593 0.00393923 0)
(-0.000139598 0.00399756 0)
(0.000418114 0.00397809 0)
(-0.00223677 0.00331615 0)
(-0.00175348 0.00359518 0)
(-0.00123607 0.00380423 0)
(-0.00339219 0.00211968 0)
(-0.00306418 0.00257115 0)
(-0.00267652 0.00297258 0)
(-0.00384505 0.00110255 0)
(-0.00365418 0.00162695 0)
(-0.00323607 0.00235114 0)
(-0.00353179 0.00187789 0)
(-0.00375877 0.00136808 0)
(-0.00391259 0.000831647 0)
(-0.00399026 0.000279026 0)
(-0.00399026 -0.000279026 0)
(-0.00391259 -0.000831647 0)
(-0.00375877 -0.00136808 0)
(-0.00353179 -0.00187789 0)
(-0.00323607 -0.00235114 0)
(-0.00287736 -0.00277863 0)
(-0.00246265 -0.00315204 0)
(-0.002 -0.0034641 0)
(-0.00149843 -0.00370874 0)
(-0.000967688 -0.00388118 0)
(-0.000418114 -0.00397809 0)
(0.000139598 -0.00399756 0)
(0.000694593 -0.00393923 0)
(0.00123607 -0.00380423 0)
(0.00175348 -0.00359518 0)
(0.00223677 -0.00331615 0)
(0.00267652 -0.00297258 0)
(0.00306418 -0.00257115 0)
(0.00339219 -0.00211968 0)
(0.00365418 -0.00162695 0)
(0.00384505 -0.00110255 0)
(0.00396107 -0.000556692 0)
(0.004 0 0)
(0.00396107 0.000556692 0)
(0.00384505 0.00110255 0)
(0.00365418 0.00162695 0)
(0.00339219 0.00211968 0)
(0.00306418 0.00257115 0)
(0.00267652 0.00297258 0)
(0.00223677 0.00331615 0)
(0.00175348 0.00359518 0)
(0.00123607 0.00380423 0)
(0.000694593 0.00393923 0)
(0.000139598 0.00399756 0)
(-0.000418114 0.00397809 0)
(-0.000967688 0.00388118 0)
(-0.00149843 0.00370874 0)
(-0.002 0.0034641 0)
(-0.00246265 0.00315204 0)
(-0.00287736 0.00277863 0)
(-0.00399026 0.000279026 0.03)
(-0.00391259 0.000831647 0.03)
(-0.004 4.89859e-19 0.03)
(-0.00399026 -0.000279026 0.03)
(-0.00375877 0.00136808 0.03)
(-0.00353179 0.00187789 0.03)
(-0.00323607 0.00235114 0.03)
(-0.00323607 -0.00235114 0.03)
(-0.00353179 -0.00187789 0.03)
(-0.00375877 -0.00136808 0.03)
(-0.00391259 -0.000831647 0.03)
(-0.00287736 -0.00277863 0.03)
(-0.00246265 -0.00315204 0.03)
(-0.002 -0.0034641 0.03)
(-0.00149843 -0.00370874 0.03)
(-0.000967688 -0.00388118 0.03)
(-0.000418114 -0.00397809 0.03)
(0.000139598 -0.00399756 0.03)
(0.000694593 -0.00393923 0.03)
(0.00123607 -0.00380423 0.03)
(0.00175348 -0.00359518 0.03)
(0.00223677 -0.00331615 0.03)
(0.00267652 -0.00297258 0.03)
(0.00306418 -0.00257115 0.03)
(0.00339219 -0.00211968 0.03)
(0.00365418 -0.00162695 0.03)
(0.00384505 -0.00110255 0.03)
(0.00396107 -0.000556692 0.03)
(0.004 0 0.03)
(0.00396107 0.000556692 0.03)
(0.00384505 0.00110255 0.03)
(0.00365418 0.00162695 0.03)
(0.00339219 0.00211968 0.03)
(0.00306418 0.00257115 0.03)
(0.00267652 0.00297258 0.03)
(0.00223677 0.00331615 0.03)
(0.00175348 0.00359518 0.03)
(0.00123607 0.00380423 0.03)
(0.000694593 0.00393923 0.03)
(0.000139598 0.00399756 0.03)
(-0.000418114 0.00397809 0.03)
(-0.000967688 0.00388118 0.03)
(-0.00149843 0.00370874 0.03)
(-0.002 0.0034641 0.03)
(-0.00246265 0.00315204 0.03)
(-0.00287736 0.00277863 0.03)
(0.0240315 0.00689093 0)
(0.0247567 0.00347933 0)
(0.025 -6.12323e-18 0)
(0.0139798 0.0207259 0)
(0.0167283 0.0185786 0)
(0.0191511 0.0160697 0)
(0.0212012 0.013248 0)
(0.0228386 0.0101684 0)
(-0.0234923 -0.0085505 0)
(-0.0244537 -0.00519779 0)
(-0.0220737 -0.0117368 0)
(-0.0234923 0.0085505 0)
(-0.0220737 0.0117368 0)
(-0.0244537 0.00519779 0)
(0.0139798 -0.0207259 0)
(0.0109593 -0.0224699 0)
(0.00772542 -0.0237764 0)
(0.0043412 -0.0246202 0)
(0.000872487 -0.0249848 0)
(-0.00261321 -0.024863 0)
(-0.00604805 -0.0242574 0)
(-0.00936516 -0.0231796 0)
(-0.0125 -0.0216506 0)
(-0.0153915 -0.0197003 0)
(-0.0179835 -0.0173665 0)
(-0.0202254 -0.0146946 0)
(-0.0249391 0.00174391 0)
(-0.0249391 -0.00174391 0)
(0.0247567 -0.00347933 0)
(0.0240315 -0.00689093 0)
(0.0228386 -0.0101684 0)
(0.0212012 -0.013248 0)
(0.0191511 -0.0160697 0)
(0.0167283 -0.0185786 0)
(-0.0202254 0.0146946 0)
(-0.0179835 0.0173665 0)
(-0.0153915 0.0197003 0)
(-0.0125 0.0216506 0)
(-0.00936516 0.0231796 0)
(-0.00604805 0.0242574 0)
(-0.00261321 0.024863 0)
(0.000872487 0.0249848 0)
(0.0043412 0.0246202 0)
(0.00772542 0.0237764 0)
(0.0109593 0.0224699 0)
(0.0247567 0.00347933 0.06)
(0.025 0 0.06)
(0.0247567 -0.00347933 0.06)
(0.0240315 0.00689093 0.06)
(0.0228386 0.0101684 0.06)
(0.0212012 0.013248 0.06)
(0.0191511 0.0160697 0.06)
(0.0167283 0.0185786 0.06)
(0.0139798 0.0207259 0.06)
(0.0109593 0.0224699 0.06)
(0.00772542 0.0237764 0.06)
(0.0043412 0.0246202 0.06)
(0.000872487 0.0249848 0.06)
(-0.00261321 0.024863 0.06)
(-0.00604805 0.0242574 0.06)
(-0.00936516 0.0231796 0.06)
(-0.0125 0.0216506 0.06)
(-0.0153915 0.0197003 0.06)
(-0.0179835 0.0173665 0.06)
(-0.0202254 0.0146946 0.06)
(-0.0220737 0.0117368 0.06)
(-0.0234923 0.0085505 0.06)
(-0.0244537 0.00519779 0.06)
(-0.0249391 0.00174391 0.06)
(-0.0249391 -0.00174391 0.06)
(-0.0244537 -0.00519779 0.06)
(-0.0234923 -0.0085505 0.06)
(-0.0220737 -0.0117368 0.06)
(-0.0202254 -0.0146946 0.06)
(-0.0179835 -0.0173665 0.06)
(-0.0153915 -0.0197003 0.06)
(-0.0125 -0.0216506 0.06)
(-0.00936516 -0.0231796 0.06)
(-0.00604805 -0.0242574 0.06)
(-0.00261321 -0.024863 0.06)
(0.000872487 -0.0249848 0.06)
(0.0043412 -0.0246202 0.06)
(0.00772542 -0.0237764 0.06)
(0.0109593 -0.0224699 0.06)
(0.0139798 -0.0207259 0.06)
(0.0167283 -0.0185786 0.06)
(0.0191511 -0.0160697 0.06)
(0.0212012 -0.013248 0.06)
(0.0228386 -0.0101684 0.06)
(0.0240315 -0.00689093 0.06)
(0.00641893 0.00413456 0.04)
(0.00685402 0.0020876 0.04)
(0.007 -3.67394e-18 0.04)
(0.00685402 -0.0020876 0.04)
(0.00349067 0.00964181 0.04)
(0.00472072 0.00794879 0.04)
(0.00570318 0.00610105 0.04)
(-0.00142443 0.0134819 0.04)
(0.000387894 0.0124356 0.04)
(0.00203696 0.0111472 0.04)
(-0.00747651 0.0149909 0.04)
(-0.00539528 0.0147721 0.04)
(-0.00336475 0.0142658 0.04)
(-0.0136191 0.0139078 0.04)
(-0.0116288 0.0145544 0.04)
(-0.00956793 0.0149178 0.04)
(-0.0187901 0.0104199 0.04)
(-0.0172349 0.0118202 0.04)
(-0.0155 0.0129904 0.04)
(-0.0220954 0.0051303 0.04)
(-0.0212442 0.00704207 0.04)
(-0.0201353 0.00881678 0.04)
(-0.0229635 -0.00104635 0.04)
(-0.0229635 0.00104635 0.04)
(-0.0226722 0.00311868 0.04)
(-0.0212442 -0.00704207 0.04)
(-0.0220954 -0.0051303 0.04)
(-0.0226722 -0.00311868 0.04)
(-0.0172349 -0.0118202 0.04)
(-0.0187901 -0.0104199 0.04)
(-0.0201353 -0.00881678 0.04)
(-0.0116288 -0.0145544 0.04)
(-0.0136191 -0.0139078 0.04)
(-0.0155 -0.0129904 0.04)
(-0.00539528 -0.0147721 0.04)
(-0.00747651 -0.0149909 0.04)
(-0.00956793 -0.0149178 0.04)
(0.000387894 -0.0124356 0.04)
(-0.00142443 -0.0134819 0.04)
(-0.00336475 -0.0142658 0.04)
(0.00472072 -0.00794879 0.04)
(0.00349067 -0.00964181 0.04)
(0.00203696 -0.0111472 0.04)
(0.00641893 -0.00413456 0.04)
(0.00570318 -0.00610105 0.04)
(-0.0229779 -0.000813138 0.0288264)
(-0.0229785 -0.000803403 0.0288315)
(-0.0229898 -0.000551144 0.0289222)
(-0.0229901 -0.000545738 0.0289241)
(-0.0229974 -0.000278304 0.0289803)
(-0.0229974 0.000278314 0.0289804)
(-0.0229924 0.000476968 0.0289423)
(-0.0229975 -0.000275402 0.0289809)
(-0.023 1.83697e-18 0.029)
(-0.0229975 0.000274962 0.028981)
(-0.0229897 0.000550859 0.0289211)
(-0.0229869 0.0006261 0.0288995)
(-0.0229778 0.000812879 0.0288256)
(-0.0229355 -0.00138755 0.0255633)
(-0.0229316 -0.00143086 0.0256026)
(-0.0229474 -0.00125488 0.0254427)
(-0.022917 -0.00157585 0.0257688)
(-0.0229167 -0.00157857 0.0257719)
(-0.0229035 -0.00169864 0.0259442)
(-0.0228998 -0.00173019 0.026001)
(-0.0228924 -0.00179382 0.0261156)
(-0.0228851 -0.00185313 0.0262513)
(-0.0228833 -0.00186776 0.0262848)
(-0.0228762 -0.0019229 0.02645)
(-0.0228741 -0.00193903 0.0265165)
(-0.0228713 -0.00196111 0.0266075)
(-0.0228681 -0.00198521 0.0267572)
(-0.0228677 -0.00198812 0.026791)
(-0.0228664 -0.00199747 0.0268993)
(-0.0228668 -0.00199459 0.0270697)
(-0.022867 -0.00199292 0.0271681)
(-0.0228704 -0.00196726 0.027347)
(-0.0228714 -0.00195979 0.027399)
(-0.0228781 -0.0019087 0.0275974)
(-0.022879 -0.00190131 0.0276177)
(-0.0228858 -0.00184716 0.0277668)
(-0.022892 -0.00179661 0.0278763)
(-0.0228938 -0.00178157 0.0279088)
(-0.0229082 -0.0016565 0.0281174)
(-0.02291 -0.00164104 0.0281432)
(-0.0229234 -0.00151428 0.0283065)
(-0.0229262 -0.00148542 0.0283375)
(-0.0229337 -0.00140923 0.0284192)
(-0.0229448 -0.00128383 0.0285301)
(-0.0229489 -0.00123676 0.0285718)
(-0.0229625 -0.00105935 0.0286954)
(-0.0229635 -0.00104635 0.0287045)
(-0.0229635 0.00104635 0.0252955)
(-0.0229702 0.000936761 0.0252383)
(-0.0229786 0.000801871 0.0251678)
(-0.022984 0.000682799 0.025124)
(-0.0229889 0.000576466 0.0250849)
(-0.022994 0.000415389 0.0250455)
(-0.0229954 0.000372547 0.025035)
(-0.0229988 0.000189053 0.025009)
(-0.023 2.76566e-05 0.0250002)
(-0.0229996 -0.000112979 0.0250032)
(-0.0229992 0.000139438 0.0250063)
(-0.0229992 -0.000139341 0.0250063)
(-0.0229957 -0.000357782 0.0250323)
(-0.022994 -0.000415401 0.0250455)
(-0.0229903 -0.000539396 0.0250741)
(-0.0229839 -0.000682445 0.0251251)
(-0.0229786 -0.000800236 0.0251671)
(-0.0229702 -0.000936738 0.0252383)
(-0.0229635 -0.00104635 0.0252955)
(-0.0229537 -0.00117333 0.0253851)
(-0.0229763 0.00084274 0.0288138)
(-0.0229635 0.00104635 0.0287045)
(-0.0229625 0.00105929 0.0286953)
(-0.0229474 0.00125495 0.0285573)
(-0.0229448 0.00128425 0.0285306)
(-0.0229315 0.00143176 0.0283965)
(-0.0229262 0.00148414 0.0283364)
(-0.0229167 0.00157829 0.0282284)
(-0.0229082 0.00165599 0.0281169)
(-0.0229035 0.00169873 0.0280556)
(-0.0228923 0.00179445 0.0278831)
(-0.0228919 0.0017973 0.0278766)
(-0.0228832 0.00186797 0.0277146)
(-0.0228791 0.0019004 0.0276175)
(-0.0228763 0.0019227 0.0275506)
(-0.0228712 0.00196124 0.0273918)
(-0.0228703 0.00196842 0.0273471)
(-0.022868 0.00198539 0.0272413)
(-0.0228664 0.00199752 0.0270996)
(-0.0228665 0.00199701 0.0270698)
(-0.022867 0.00199296 0.0268323)
(-0.0228678 0.00198705 0.0267912)
(-0.0228715 0.00195948 0.0265995)
(-0.0228742 0.00193814 0.0265168)
(-0.0228781 0.00190844 0.0264018)
(-0.022885 0.00185367 0.026251)
(-0.0228999 0.00172828 0.0260023)
(-0.02291 0.00164026 0.0258557)
(-0.0228858 0.00184735 0.0262336)
(-0.0228939 0.0017812 0.0260904)
(-0.0229171 0.00157395 0.0257703)
(-0.0229233 0.00151453 0.0256938)
(-0.0229337 0.00140885 0.0255804)
(-0.0229355 0.00138839 0.0255624)
(-0.022949 0.00123538 0.0254272)
(-0.0229537 0.00117391 0.0253844)
(-0.004 5.81893e-18 0.029)
(-0.00399756 0.000139586 0.0289951)
(-0.0039903 0.000278346 0.0289805)
(-0.00399024 0.000279025 0.0289804)
(-0.00391641 0.000813473 0.0288271)
(-0.00391234 0.000831591 0.0288183)
(-0.00397824 0.000416619 0.0289561)
(-0.00396183 0.000551275 0.0289225)
(-0.00394106 0.00068413 0.0288794)
(-0.00388817 0.000939228 0.0287657)
(-0.00385704 0.00105984 0.0286961)
(-0.00378778 0.00128558 0.0285321)
(-0.00371362 0.00148629 0.0283383)
(-0.00364016 0.00165808 0.0281184)
(-0.00375747 0.0013676 0.0284529)
(-0.00353171 0.00187784 0.0276847)
(-0.0035188 0.00190211 0.027618)
(-0.00354417 0.00185441 0.0277491)
(-0.00357333 0.00179759 0.0278767)
(-0.00360569 0.00173176 0.0280005)
(-0.00349781 0.00194045 0.0274844)
(-0.00348147 0.00196962 0.0273473)
(-0.00348149 0.00196958 0.0266525)
(-0.00349773 0.00194059 0.0265162)
(-0.0034704 0.00198904 0.0267909)
(-0.0034648 0.00199878 0.0269303)
(-0.0034648 0.00199878 0.0270698)
(-0.00347038 0.00198909 0.0272086)
(-0.0035189 0.00190194 0.0263814)
(-0.00353171 0.00187784 0.0263153)
(-0.0035442 0.00185437 0.0262508)
(-0.00357328 0.00179768 0.0261234)
(-0.00360555 0.00173205 0.026)
(-0.00367643 0.00157602 0.0257687)
(-0.00375097 0.00138932 0.0255613)
(-0.00375823 0.00136789 0.0255433)
(-0.00382335 0.00117557 0.025382)
(-0.00385698 0.00106005 0.025304)
(-0.00388824 0.000938943 0.0252341)
(-0.00391235 0.000831593 0.0251817)
(-0.0039163 0.000813976 0.0251731)
(-0.00394108 0.00068404 0.0251206)
(-0.00396181 0.000551391 0.0250775)
(-0.00397833 0.000415823 0.0250437)
(-0.00399026 0.000279026 0.0250196)
(-0.00399026 0.000278977 0.0250196)
(-0.00399757 0.000139513 0.0250049)
(-0.004 -3.85767e-07 0.025)
(-0.00399757 -0.000139513 0.0250049)
(-0.00399032 -0.000278052 0.0250194)
(-0.00399024 -0.000279024 0.0250196)
(-0.00397833 -0.000415823 0.0250437)
(-0.00396171 -0.000552151 0.0250777)
(-0.00394108 -0.00068404 0.0251206)
(-0.00391636 -0.000813694 0.025173)
(-0.00375097 -0.00138932 0.0255613)
(-0.00367643 -0.00157602 0.0257687)
(-0.00391234 -0.000831592 0.0251817)
(-0.00388824 -0.000938943 0.0252341)
(-0.00385707 -0.00105973 0.0253038)
(-0.00382335 -0.00117557 0.025382)
(-0.00375823 -0.00136789 0.0255433)
(-0.0035442 -0.00185437 0.0262508)
(-0.00353171 -0.00187784 0.0263153)
(-0.00351878 -0.00190216 0.0263821)
(-0.00349773 -0.00194059 0.0265162)
(-0.00357346 -0.00179733 0.0261227)
(-0.00360555 -0.00173205 0.026)
(-0.00348151 -0.00196953 0.0266522)
(-0.0034704 -0.00198904 0.0267909)
(-0.00346479 -0.0019988 0.0269307)
(-0.0034648 -0.00199878 0.0270698)
(-0.00347041 -0.00198903 0.0272092)
(-0.00348147 -0.00196962 0.0273473)
(-0.0034977 -0.00194064 0.0274837)
(-0.0035188 -0.00190211 0.027618)
(-0.00353171 -0.00187784 0.0276847)
(-0.00354433 -0.00185411 0.0277499)
(-0.00357333 -0.00179759 0.0278767)
(-0.00360553 -0.0017321 0.0279999)
(-0.00364016 -0.00165808 0.0281184)
(-0.00371362 -0.00148629 0.0283383)
(-0.00375747 -0.0013676 0.0284529)
(-0.00378778 -0.00128558 0.0285321)
(-0.00385704 -0.00105984 0.0286961)
(-0.00388819 -0.000939124 0.0287658)
(-0.00391234 -0.000831591 0.0288183)
(-0.00391641 -0.000813473 0.0288271)
(-0.00394096 -0.00068473 0.0288791)
(-0.00396183 -0.000551275 0.0289225)
(-0.00397834 -0.000415746 0.0289563)
(-0.00399024 -0.000279025 0.0289804)
(-0.0039903 -0.000278346 0.0289805)
(-0.00399755 -0.000140124 0.0289951)
(0.025 2.58363e-19 0.009)
(0.0249966 0.000412799 0.00897146)
(0.0249965 0.000417453 0.00897049)
(0.0249867 0.000815888 0.00888692)
(0.0249863 0.000826754 0.00888331)
(0.0249768 0.00107581 0.00880047)
(0.0249698 0.00121792 0.00873561)
(0.0249602 0.00141061 0.00864768)
(0.0249494 0.00158972 0.00854407)
(0.0249493 0.00159183 0.00854285)
(0.0249359 0.00178854 0.00840855)
(0.0249255 0.00192659 0.00829596)
(0.0249199 0.00199986 0.00823619)
(0.024901 0.00222266 0.00801489)
(0.0249004 0.00222898 0.00800703)
(0.0248801 0.00244579 0.00773728)
(0.0248762 0.00248366 0.00767546)
(0.0248582 0.00265855 0.00739001)
(0.0248543 0.00269467 0.0073143)
(0.024848 0.00275295 0.00719217)
(0.0248385 0.00283693 0.00697562)
(0.0248368 0.00285157 0.00692657)
(0.0248304 0.00290753 0.00673911)
(0.024825 0.00295293 0.00652063)
(0.024824 0.00296126 0.00648055)
(0.0248201 0.00299342 0.00619857)
(0.02482 0.00299494 0.00610465)
(0.0248196 0.00299827 0.00589818)
(0.0248218 0.00297977 0.00568675)
(0.0248229 0.0029704 0.00557965)
(0.0248301 0.00290922 0.00527457)
(0.0248309 0.00290279 0.00524252)
(0.0248439 0.00278951 0.00489607)
(0.0248449 0.00278037 0.00487674)
(0.0248619 0.00262375 0.00454537)
(0.0248648 0.00259542 0.00450172)
(0.0248848 0.00239694 0.00419593)
(0.024888 0.00236292 0.00415392)
(0.0248974 0.00226258 0.00403005)
(0.0249106 0.00211204 0.00386944)
(0.024913 0.00208314 0.00384289)
(0.0249243 0.00194395 0.00371504)
(0.0249377 0.00176318 0.00357317)
(0.0249382 0.00175746 0.00356868)
(0.0249516 0.00155496 0.00343444)
(0.0249601 0.00140731 0.00335316)
(0.0249643 0.00133593 0.00331387)
(0.0249758 0.00109917 0.00320861)
(0.0249787 0.00102525 0.00318328)
(0.0249857 0.000844383 0.00312128)
(0.024992 0.0006233 0.00306734)
(0.0249934 0.000576321 0.00305588)
(0.0249983 0.000295112 0.00301455)
(0.0249988 0.000209121 0.00301031)
(0.025 3.67394e-19 0.003)
(0.0249988 -0.00020912 0.00301034)
(0.0249982 -0.000295859 0.00301462)
(0.0249931 -0.00058838 0.00305826)
(0.0249921 -0.000623353 0.00306707)
(0.0249847 -0.000875481 0.00313059)
(0.0249786 -0.00102485 0.00318428)
(0.0249735 -0.0011516 0.00322984)
(0.0249603 -0.00140823 0.00335155)
(0.0249598 -0.00141659 0.00335552)
(0.0249442 -0.00167002 0.00350781)
(0.0249376 -0.00176131 0.00357569)
(0.0249272 -0.00190602 0.00368331)
(0.024913 -0.00208252 0.00384358)
(0.0249097 -0.00212278 0.00388014)
(0.0248921 -0.0023203 0.00409837)
(0.0248881 -0.00236192 0.00415458)
(0.0248751 -0.00249608 0.00433579)
(0.0248648 -0.00259531 0.00450165)
(0.0248595 -0.00264659 0.00458735)
(0.0248458 -0.00277199 0.0048528)
(0.0248449 -0.00278048 0.00487656)
(0.0248345 -0.00287156 0.0051316)
(0.0248303 -0.00290739 0.00527511)
(0.0248262 -0.00294279 0.00541693)
(0.0248214 -0.00298263 0.00568655)
(0.0248211 -0.00298567 0.00570712)
(0.0248193 -0.003 0.00600218)
(0.02482 -0.00299488 0.00610453)
(0.0248211 -0.00298524 0.00629719)
(0.0248251 -0.00295191 0.00652057)
(0.0248263 -0.00294196 0.00658726)
(0.0248544 -0.0026933 0.00731365)
(0.0248597 -0.00264461 0.00741634)
(0.0248347 -0.00287034 0.00687243)
(0.0248369 -0.00285102 0.00692628)
(0.024846 -0.00277038 0.00715108)
(0.0248753 -0.00249382 0.00766759)
(0.024876 -0.00248666 0.00767724)
(0.0248923 -0.00231781 0.00790467)
(0.0249004 -0.00222677 0.00800498)
(0.02491 -0.00211989 0.00812275)
(0.0249255 -0.0019274 0.00829707)
(0.0249275 -0.00190284 0.00831931)
(0.0249444 -0.00166668 0.00849443)
(0.0249492 -0.00158816 0.00854147)
(0.02496 -0.00141298 0.00864641)
(0.02497 -0.001219 0.00873808)
(0.0249736 -0.00114771 0.00877178)
(0.0249848 -0.000871399 0.00887066)
(0.0249861 -0.000826443 0.00888191)
(0.0249932 -0.00058426 0.00894256)
(0.0249961 -0.000417002 0.00896731)
(0.0249983 -0.000292944 0.00898566)
)


// edges:

667
(
(1 2)
(3 1)
(2 4)
(5 3)
(6 5)
(7 6)
(8 7)
(9 8)
(10 9)
(11 10)
(12 11)
(13 12)
(14 13)
(15 14)
(16 15)
(17 16)
(18 17)
(19 18)
(20 19)
(21 20)
(22 21)
(23 22)
(24 23)
(25 24)
(26 25)
(27 26)
(28 27)
(29 28)
(30 29)
(31 30)
(32 31)
(33 32)
(34 33)
(35 34)
(36 35)
(37 36)
(38 37)
(39 38)
(40 39)
(41 40)
(42 41)
(43 42)
(44 43)
(45 44)
(4 45)
(46 47)
(47 48)
(48 49)
(50 51)
(51 52)
(52 46)
(53 54)
(54 55)
(55 50)
(56 57)
(57 58)
(58 53)
(59 60)
(60 61)
(61 56)
(62 63)
(63 64)
(64 59)
(65 66)
(66 67)
(67 62)
(68 69)
(69 70)
(70 65)
(71 72)
(72 73)
(73 68)
(74 75)
(75 76)
(76 71)
(77 78)
(78 79)
(79 74)
(80 81)
(81 82)
(82 77)
(83 84)
(84 85)
(85 80)
(86 87)
(87 88)
(88 83)
(49 89)
(89 90)
(90 86)
(180 181)
(182 180)
(183 182)
(181 184)
(184 185)
(185 186)
(187 188)
(188 189)
(190 183)
(189 190)
(191 187)
(192 191)
(193 192)
(194 193)
(195 194)
(196 195)
(197 196)
(198 197)
(199 198)
(200 199)
(201 200)
(202 201)
(203 202)
(204 203)
(205 204)
(206 205)
(207 206)
(208 207)
(209 208)
(210 209)
(211 210)
(212 211)
(213 212)
(214 213)
(215 214)
(216 215)
(217 216)
(218 217)
(219 218)
(220 219)
(221 220)
(222 221)
(223 222)
(224 223)
(225 224)
(186 225)
(226 227)
(227 228)
(229 230)
(230 231)
(231 232)
(232 233)
(233 226)
(234 235)
(236 234)
(237 238)
(239 237)
(240 241)
(241 242)
(242 243)
(243 244)
(244 245)
(245 246)
(246 247)
(247 248)
(248 249)
(249 250)
(250 251)
(251 236)
(252 239)
(253 252)
(235 253)
(228 254)
(254 255)
(255 256)
(256 257)
(257 258)
(258 259)
(259 240)
(238 260)
(260 261)
(261 262)
(262 263)
(263 264)
(264 265)
(265 266)
(266 267)
(267 268)
(268 269)
(269 270)
(270 229)
(271 272)
(272 273)
(274 271)
(275 274)
(276 275)
(277 276)
(278 277)
(279 278)
(280 279)
(281 280)
(282 281)
(283 282)
(284 283)
(285 284)
(286 285)
(287 286)
(288 287)
(289 288)
(290 289)
(291 290)
(292 291)
(293 292)
(294 293)
(295 294)
(296 295)
(297 296)
(298 297)
(299 298)
(300 299)
(301 300)
(302 301)
(303 302)
(304 303)
(305 304)
(306 305)
(307 306)
(308 307)
(309 308)
(310 309)
(311 310)
(312 311)
(313 312)
(314 313)
(315 314)
(273 315)
(316 317)
(317 318)
(318 319)
(320 321)
(321 322)
(322 316)
(323 324)
(324 325)
(325 320)
(326 327)
(327 328)
(328 323)
(329 330)
(330 331)
(331 326)
(332 333)
(333 334)
(334 329)
(335 336)
(336 337)
(337 332)
(338 339)
(339 340)
(340 335)
(341 342)
(342 343)
(343 338)
(344 345)
(345 346)
(346 341)
(347 348)
(348 349)
(349 344)
(350 351)
(351 352)
(352 347)
(353 354)
(354 355)
(355 350)
(356 357)
(357 358)
(358 353)
(319 359)
(359 360)
(360 356)
(361 362)
(362 363)
(363 364)
(364 365)
(366 367)
(365 368)
(368 369)
(369 370)
(370 366)
(367 371)
(371 372)
(372 373)
(374 375)
(376 374)
(375 377)
(377 378)
(378 379)
(379 380)
(380 381)
(381 382)
(382 383)
(383 384)
(384 385)
(385 386)
(386 387)
(387 388)
(389 390)
(390 391)
(391 392)
(392 393)
(393 394)
(394 395)
(395 396)
(396 397)
(397 398)
(398 399)
(399 400)
(400 401)
(401 402)
(402 403)
(403 404)
(404 405)
(405 406)
(406 407)
(407 361)
(408 409)
(409 410)
(410 411)
(411 412)
(412 413)
(413 414)
(414 415)
(416 417)
(418 416)
(415 418)
(417 419)
(419 420)
(420 421)
(421 422)
(422 423)
(423 424)
(424 425)
(425 426)
(426 427)
(427 376)
(373 428)
(428 429)
(429 430)
(430 431)
(431 432)
(432 433)
(433 434)
(434 435)
(435 436)
(436 437)
(437 438)
(438 439)
(439 440)
(440 441)
(441 442)
(442 443)
(443 444)
(444 445)
(445 446)
(447 448)
(448 449)
(449 450)
(450 451)
(451 452)
(452 453)
(454 455)
(453 456)
(456 457)
(457 454)
(455 458)
(458 459)
(459 460)
(460 461)
(461 462)
(462 463)
(463 408)
(388 389)
(446 447)
(464 465)
(465 466)
(466 467)
(468 469)
(467 470)
(470 471)
(471 472)
(472 468)
(469 473)
(473 474)
(474 475)
(476 477)
(478 476)
(475 478)
(479 480)
(481 479)
(482 481)
(483 482)
(477 483)
(484 485)
(480 484)
(486 487)
(488 486)
(489 488)
(490 489)
(491 490)
(485 491)
(487 492)
(492 493)
(493 494)
(494 495)
(495 496)
(496 497)
(497 498)
(498 499)
(499 500)
(500 501)
(501 502)
(502 503)
(503 504)
(504 505)
(505 506)
(506 507)
(507 508)
(508 509)
(509 510)
(510 511)
(511 512)
(512 513)
(513 514)
(514 515)
(515 516)
(516 517)
(517 518)
(519 520)
(518 521)
(521 522)
(522 523)
(523 524)
(524 525)
(525 519)
(526 527)
(527 528)
(528 529)
(530 526)
(531 530)
(520 531)
(529 532)
(532 533)
(533 534)
(534 535)
(535 536)
(536 537)
(537 538)
(538 539)
(539 540)
(540 541)
(541 542)
(542 543)
(543 544)
(544 545)
(545 546)
(546 547)
(547 548)
(548 549)
(549 550)
(550 551)
(551 552)
(552 553)
(553 554)
(554 555)
(555 556)
(556 557)
(557 464)
(558 559)
(559 560)
(560 561)
(561 562)
(562 563)
(563 564)
(564 565)
(565 566)
(566 567)
(567 568)
(568 569)
(569 570)
(570 571)
(571 572)
(572 573)
(573 574)
(574 575)
(575 576)
(576 577)
(577 578)
(578 579)
(579 580)
(580 581)
(581 582)
(582 583)
(584 585)
(583 584)
(585 586)
(586 587)
(587 588)
(588 589)
(589 590)
(590 591)
(591 592)
(592 593)
(593 594)
(594 595)
(595 596)
(596 597)
(597 598)
(598 599)
(599 600)
(600 601)
(601 602)
(602 603)
(603 604)
(604 605)
(605 606)
(606 607)
(607 608)
(608 609)
(609 610)
(610 611)
(611 612)
(612 613)
(613 614)
(614 615)
(615 616)
(616 617)
(617 618)
(618 619)
(619 620)
(620 621)
(621 622)
(622 623)
(623 624)
(624 625)
(625 626)
(626 627)
(627 628)
(628 629)
(629 630)
(630 631)
(631 632)
(632 633)
(633 634)
(634 635)
(635 636)
(636 637)
(637 638)
(638 639)
(640 641)
(641 642)
(642 643)
(644 645)
(643 646)
(646 647)
(647 648)
(648 644)
(645 649)
(649 650)
(650 651)
(651 652)
(652 653)
(653 654)
(654 655)
(655 656)
(656 657)
(657 658)
(658 659)
(659 660)
(660 661)
(661 662)
(662 663)
(663 664)
(664 665)
(665 558)
(639 640)
(91 92)
(92 0)
(0 93)
(94 95)
(95 96)
(96 91)
(97 98)
(98 99)
(99 94)
(100 101)
(101 102)
(102 97)
(103 104)
(104 105)
(105 100)
(106 107)
(107 108)
(108 103)
(109 110)
(110 111)
(111 106)
(112 113)
(113 114)
(114 109)
(115 116)
(116 117)
(117 112)
(118 119)
(119 120)
(120 115)
(121 122)
(122 123)
(123 118)
(124 125)
(125 126)
(126 121)
(127 128)
(128 129)
(129 124)
(130 131)
(131 132)
(132 127)
(93 133)
(133 134)
(134 130)
(135 136)
(136 137)
(138 139)
(137 138)
(0 140)
(139 0)
(140 141)
(141 142)
(142 143)
(143 144)
(144 145)
(145 146)
(146 147)
(147 148)
(148 149)
(149 150)
(150 151)
(151 152)
(152 153)
(153 154)
(154 155)
(155 156)
(156 157)
(157 158)
(158 159)
(159 160)
(160 161)
(161 162)
(162 163)
(163 164)
(164 165)
(165 166)
(166 167)
(167 168)
(168 169)
(169 170)
(170 171)
(171 172)
(172 173)
(173 174)
(174 175)
(175 176)
(176 177)
(177 178)
(178 179)
(179 135)
)

// * * * * * * * * * * * * * * * * * * * * * * * * * * * * * * * * * * * * * //


// ************************************************************************* //
